Input Parameters:
   integrator                     = md
   tinit                          = 0
   dt                             = 0.004
   nsteps                         = 250000
   init-step                      = 0
   simulation-part                = 1
   comm-mode                      = Angular
   nstcomm                        = 500
   bd-fric                        = 0
   ld-seed                        = 948174747
   emtol                          = 10
   emstep                         = 0.01
   niter                          = 20
   fcstep                         = 0
   nstcgsteep                     = 1000
   nbfgscorr                      = 10
   rtpi                           = 0.05
   nstxout                        = 500
   nstvout                        = 500
   nstfout                        = 0
   nstlog                         = 5000
   nstcalcenergy                  = 500
   nstenergy                      = 500
   nstxout-compressed             = 0
   compressed-x-precision         = 1000
   cutoff-scheme                  = Verlet
   nstlist                        = 10
   pbc                            = xyz
   periodic-molecules             = false
   verlet-buffer-tolerance        = 0.005
   rlist                          = 1.215
   coulombtype                    = Cut-off
   coulomb-modifier               = Potential-shift
   rcoulomb-switch                = 0
   rcoulomb                       = 1
   epsilon-r                      = 1
   epsilon-rf                     = inf
   vdw-type                       = Cut-off
   vdw-modifier                   = Potential-shift
   rvdw-switch                    = 0
   rvdw                           = 1
   DispCorr                       = No
   table-extension                = 1
   fourierspacing                 = 0.12
   fourier-nx                     = 0
   fourier-ny                     = 0
   fourier-nz                     = 0
   pme-order                      = 4
   ewald-rtol                     = 1e-05
   ewald-rtol-lj                  = 0.001
   lj-pme-comb-rule               = Geometric
   ewald-geometry                 = 0
   epsilon-surface                = 0
   tcoupl                         = V-rescale
   nsttcouple                     = 10
   nh-chain-length                = 0
   print-nose-hoover-chain-variables = false
   pcoupl                         = No
   pcoupltype                     = Isotropic
   nstpcouple                     = -1
   tau-p                          = 1
   compressibility (3x3):
      compressibility[    0]={ 0.00000e+00,  0.00000e+00,  0.00000e+00}
      compressibility[    1]={ 0.00000e+00,  0.00000e+00,  0.00000e+00}
      compressibility[    2]={ 0.00000e+00,  0.00000e+00,  0.00000e+00}
   ref-p (3x3):
      ref-p[    0]={ 0.00000e+00,  0.00000e+00,  0.00000e+00}
      ref-p[    1]={ 0.00000e+00,  0.00000e+00,  0.00000e+00}
      ref-p[    2]={ 0.00000e+00,  0.00000e+00,  0.00000e+00}
   refcoord-scaling               = No
   posres-com (3):
      posres-com[0]= 0.00000e+00
      posres-com[1]= 0.00000e+00
      posres-com[2]= 0.00000e+00
   posres-comB (3):
      posres-comB[0]= 0.00000e+00
      posres-comB[1]= 0.00000e+00
      posres-comB[2]= 0.00000e+00
   QMMM                           = false
   QMconstraints                  = 0
   QMMMscheme                     = 0
   MMChargeScaleFactor            = 1
qm-opts:
   ngQM                           = 0
   constraint-algorithm           = Lincs
   continuation                   = false
   Shake-SOR                      = false
   shake-tol                      = 0.0001
   lincs-order                    = 4
   lincs-iter                     = 1
   lincs-warnangle                = 30
   nwall                          = 0
   wall-type                      = 9-3
   wall-r-linpot                  = -1
   wall-atomtype[0]               = -1
   wall-atomtype[1]               = -1
   wall-density[0]                = 0
   wall-density[1]                = 0
   wall-ewald-zfac                = 3
   pull                           = false
   awh                            = false
   rotation                       = false
   interactiveMD                  = false
   disre                          = No
   disre-weighting                = Conservative
   disre-mixed                    = false
   dr-fc                          = 1000
   dr-tau                         = 0
   nstdisreout                    = 100
   orire-fc                       = 0
   orire-tau                      = 0
   nstorireout                    = 100
   free-energy                    = no
   cos-acceleration               = 0
   deform (3x3):
      deform[    0]={ 0.00000e+00,  0.00000e+00,  0.00000e+00}
      deform[    1]={ 0.00000e+00,  0.00000e+00,  0.00000e+00}
      deform[    2]={ 0.00000e+00,  0.00000e+00,  0.00000e+00}
   simulated-tempering            = false
   swapcoords                     = no
   userint1                       = 0
   userint2                       = 0
   userint3                       = 0
   userint4                       = 0
   userreal1                      = 0
   userreal2                      = 0
   userreal3                      = 0
   userreal4                      = 0
   applied-forces:
     electric-field:
       x:
         E0                       = 0
         omega                    = 0
         t0                       = 0
         sigma                    = 0
       y:
         E0                       = 0
         omega                    = 0
         t0                       = 0
         sigma                    = 0
       z:
         E0                       = 0
         omega                    = 0
         t0                       = 0
         sigma                    = 0
     density-guided-simulation:
       active                     = false
       group                      = protein
       similarity-measure         = inner-product
       atom-spreading-weight      = unity
       force-constant             = 1e+09
       gaussian-transform-spreading-width = 0.2
       gaussian-transform-spreading-range-in-multiples-of-width = 4
       reference-density-filename = reference.mrc
       nst                        = 1
       normalize-densities        = true
       adaptive-force-scaling     = false
       adaptive-force-scaling-time-constant = 4
grpopts:
   nrdf:     22854.2      868.78
   ref-t:         300         300
   tau-t:         0.1         0.1
annealing:      Single      Single
annealing-npoints:          10          10
annealing-time [0]:	         0.0        50.0        70.0       150.0       151.0       300.0       330.0       400.0       405.0       600.0
annealing-temp [0]:	       300.0       300.0       500.0       500.0      1100.0      1100.0        10.0        10.0       300.0       300.0
annealing-time [1]:	         0.0        50.0        70.0       150.0       151.0       300.0       330.0       400.0       405.0       600.0
annealing-temp [1]:	       300.0       300.0       500.0       500.0      1100.0      1100.0        10.0        10.0       300.0       300.0
   acc:	           0           0           0
   nfreeze:           N           N           N
   energygrp-flags[  0]: 0

Using 1 MPI thread

Non-default thread affinity set, disabling internal thread affinity

Using 12 OpenMP threads

WARNING: Oversubscribing the available 2 logical CPU cores with 12 threads.
         This will cause considerable performance loss.
System total charge: -0.000
Potential shift: LJ r^-12: -1.000e+00 r^-6: -1.000e+00, Coulomb -1e+00
Generated table with 1107 data points for 1-4 COUL.
Tabscale = 500 points/nm
Generated table with 1107 data points for 1-4 LJ6.
Tabscale = 500 points/nm
Generated table with 1107 data points for 1-4 LJ12.
Tabscale = 500 points/nm

Using SIMD 4x4 nonbonded short-range kernels

Using a dual 4x4 pair-list setup updated with dynamic pruning:
  outer list: updated every 10 steps, buffer 0.215 nm, rlist 1.215 nm
  inner list: updated every  4 steps, buffer 0.066 nm, rlist 1.066 nm
At tolerance 0.005 kJ/mol/ps per atom, equivalent classical 1x1 list would be:
  outer list: updated every 10 steps, buffer 0.260 nm, rlist 1.260 nm
  inner list: updated every  4 steps, buffer 0.082 nm, rlist 1.082 nm

Using Lorentz-Berthelot Lennard-Jones combination rule

Removing pbc first time

Initializing LINear Constraint Solver

The number of constraints is 412

There are: 11857 Atoms

Constraining the starting coordinates (step 0)

Constraining the coordinates at t0-dt (step 0)
Center of mass motion removal mode is Angular
We have the following groups for center of mass motion removal:
  0:  rest
Group rest with mass  7.22412e+04, Ekrot  3.80503e+00 Det(I) =  3.20423e+15
  COM:      2.77541       2.79475       1.97004
  P:       -7.38683       0.01971       8.63713
  V:       -0.00010       0.00000       0.00012
  J:      585.21191     645.08917    1351.13367
  w:        0.00210       0.00233       0.00361
Inertia tensor (3x3):
   Inertia tensor[    0]={ 1.86476e+05,  1.41756e+03, -4.44156e+02}
   Inertia tensor[    1]={ 1.41756e+03,  1.87380e+05, -1.86156e+02}
   Inertia tensor[    2]={-4.44156e+02, -1.86156e+02,  9.17082e+04}
RMS relative constraint deviation after constraining: 7.10e-05
Initial temperature: 310.814 K

Started mdrun on rank 0 Wed May 10 13:54:56 2023

           Step           Time
              0        0.00000

   Energies (kJ/mol)
          Angle    Proper Dih.  Improper Dih.          LJ-14     Coulomb-14
    7.78154e+02    9.19426e+02    4.27798e+01    3.81885e+02    4.84699e+03
        LJ (SR)   Coulomb (SR)      Potential    Kinetic En.   Total Energy
    2.08134e+04   -2.39606e+05   -2.11823e+05    3.06852e+04   -1.81138e+05
   -1.81138e+05    3.11140e+02   -3.31509e+03    2.16416e-04

	<====  A V E R A G E S  ====>

	Statistics over 250001 steps using 501 frames

   Energies (kJ/mol)
          Angle    Proper Dih.  Improper Dih.          LJ-14     Coulomb-14
    1.06314e+03    1.00465e+03    6.17528e+01    4.16180e+02    4.87001e+03
        LJ (SR)   Coulomb (SR)      Potential    Kinetic En.   Total Energy
    2.10763e+04   -2.20460e+05   -1.91968e+05    4.33221e+04   -1.48646e+05
  Conserved En.    Temperature Pressure (bar)   Constr. rmsd
    6.91087e+06    4.39274e+02   -1.72290e+02    0.00000e+00

   Total Virial (kJ/mol)
    1.46502e+04    1.56381e+01   -1.84776e+02
    1.56740e+01    1.53082e+04   -1.11661e+02
   -1.84843e+02   -1.11757e+02    1.52576e+04

   Pressure (bar)
   -5.97872e+01   -4.82524e-01    4.67000e+01
   -4.92329e-01   -2.36633e+02    2.93251e+01
    4.67183e+01    2.93512e+01   -2.20451e+02

        T-Water    T-non-Water
    4.39973e+02    4.20880e+02
